oemof/loadflow/app_results_backup.txt

Converged in 0.25 seconds
================================================================================
|     System Summary                                                           |
================================================================================

How many?                How much?              P (MW)            Q (MVAr)
---------------------    -------------------  -------------  -----------------
Buses            372     Total Gen Capacity   74400.0       -74400.0 to 74400.0
Generators       372     On-line Capacity     74400.0       -74400.0 to 74400.0
Committed Gens   372     Generation (actual)  74736.6           -2384.3
Loads            372     Load                 74400.0               0.0
  Fixed          372       Fixed              74400.0               0.0
  Dispatchable     0       Dispatchable           0.0 of 0.0        0.0
Shunts             0     Shunt (inj)              0.0               0.0
Branches         576     Losses (I^2 * Z)       336.64           1009.92
Transformers       0     Branch Charging (inj)     -             3394.2
Inter-ties         0     Total Inter-tie Flow     0.0               0.0
Areas              1

                          Minimum                      Maximum
                 -------------------------  --------------------------------
Voltage Magnitude   1.000 p.u. @ bus 4075       1.625 p.u. @ bus 8011
Voltage Angle     -11.17 deg   @ bus 8011       0.00 deg   @ bus 4075
P Losses (I^2*R)             -                 30.43 MW    @ line 3227-8164
Q Losses (I^2*X)             -                 91.30 MVAr  @ line 3227-8164

================================================================================
|     Bus Data                                                                 |
================================================================================
 Bus      Voltage          Generation             Load        
  #   Mag(pu) Ang(deg)   P (MW)   Q (MVAr)   P (MW)   Q (MVAr)
----- ------- --------  --------  --------  --------  --------
 5941  1.253   -5.619    200.00     -0.00    200.00      0.00 
 6343  1.370   -7.521    200.00      0.00    200.00      0.00 
 8123  1.412   -8.285    200.00     -0.00    200.00      0.00 
 6338  1.557  -10.316    200.00      0.00    200.00      0.00 
 6143  1.198   -4.526    200.00      0.00    200.00      0.00 
 7987  1.167   -4.018    200.00      0.00    200.00      0.00 
 6254  1.554  -10.309    200.00     -0.00    200.00      0.00 
 7718  1.510   -9.666    200.00     -0.00    200.00      0.00 
 7806  1.364   -7.459    200.00     -0.00    200.00      0.00 
 6075  1.365   -7.462    200.00      0.00    200.00      0.00 
 5728  1.429   -8.382    200.00     -0.00    200.00      0.00 
 5878  1.133   -3.218    200.00     -0.00    200.00      0.00 
 8157  1.430   -8.399    200.00      0.00    200.00      0.00 
 2359  1.510   -9.755    200.00     -0.00    200.00      0.00 
 7833  1.180   -4.279    200.00     -0.00    200.00      0.00 
 5980  1.425   -8.570    200.00      0.00    200.00      0.00 
 5739  1.619  -11.087    200.00      0.00    200.00      0.00 
 4075  1.000    0.000*   245.01   -292.65    200.00      0.00 
 7956  1.383   -7.769    200.00      0.00    200.00      0.00 
 6071  1.504   -9.578    200.00     -0.00    200.00      0.00 
 7957  1.531   -9.925    200.00      0.00    200.00      0.00 
 7757  1.284   -6.144    200.00      0.00    200.00      0.00 
 7836  1.468   -9.030    200.00      0.00    200.00      0.00 
 5726  1.421   -8.317    200.00     -0.00    200.00      0.00 
 7924  1.499   -9.548    200.00      0.00    200.00      0.00 
 6362  1.525   -9.816    200.00      0.00    200.00      0.00 
 8027  1.129   -3.145    200.00      0.00    200.00      0.00 
 7983  1.525   -9.816    200.00      0.00    200.00      0.00 
 7709  1.532   -9.920    200.00     -0.00    200.00      0.00 
 6283  1.417   -8.348    200.00      0.00    200.00      0.00 
 6247  1.371   -7.534    200.00      0.00    200.00      0.00 
 6285  1.401   -8.104    200.00     -0.00    200.00      0.00 
 7872  1.394   -7.955    200.00     -0.00    200.00      0.00 
 6016  1.491   -9.477    200.00      0.00    200.00      0.00 
 7968  1.254   -5.606    200.00      0.00    200.00      0.00 
 5764  1.423   -8.295    200.00     -0.00    200.00      0.00 
 7786  1.181   -4.210    200.00      0.00    200.00      0.00 
 8119  1.546  -10.160    200.00      0.00    200.00      0.00 
 8065  1.391   -7.976    200.00      0.00    200.00      0.00 
 8110  1.390   -8.057    200.00      0.00    200.00      0.00 
 7761  1.580  -10.593    200.00     -0.00    200.00      0.00 
 6145  1.324   -6.877    200.00      0.00    200.00      0.00 
 5744  1.418   -8.277    200.00      0.00    200.00      0.00 
 8083  1.104   -2.603    200.00     -0.00    200.00      0.00 
 8093  1.366   -7.457    200.00     -0.00    200.00      0.00 
 5940  1.247   -5.533    200.00     -0.00    200.00      0.00 
 7749  1.345   -7.234    200.00      0.00    200.00      0.00 
 7845  1.396   -7.957    200.00     -0.00    200.00      0.00 
 3285  1.000    0.000*   240.55   -288.74    200.00      0.00 
 5863  1.335   -7.004    200.00      0.00    200.00      0.00 
 7651  1.302   -6.554    200.00     -0.00    200.00      0.00 
 5743  1.421   -8.317    200.00     -0.00    200.00      0.00 
 6383  1.131   -3.179    200.00      0.00    200.00      0.00 
 7953  1.536  -10.007    200.00     -0.00    200.00      0.00 
 5753  1.405   -8.050    200.00     -0.00    200.00      0.00 
 6125  1.589  -10.704    200.00     -0.00    200.00      0.00 
 7723  1.430   -8.552    200.00      0.00    200.00      0.00 
 5765  1.429   -8.382    200.00      0.00    200.00      0.00 
 5955  1.301   -6.566    200.00     -0.00    200.00      0.00 
 5962  1.200   -4.680    200.00      0.00    200.00      0.00 
 7716  1.362   -7.492    200.00     -0.00    200.00      0.00 
  279  1.407   -8.085    200.00      0.00    200.00      0.00 
 6042  1.508   -9.630    200.00     -0.00    200.00      0.00 
 6091  1.467   -9.170    200.00     -0.00    200.00      0.00 
 7732  1.583  -10.665    200.00     -0.00    200.00      0.00 
 7735  1.348   -7.270    200.00     -0.00    200.00      0.00 
 8134  1.401   -8.005    200.00      0.00    200.00      0.00 
 7771  1.389   -7.886    200.00     -0.00    200.00      0.00 
 7778  1.378   -7.688    200.00     -0.00    200.00      0.00 
 7863  1.295   -6.376    200.00      0.00    200.00      0.00 
 5842  1.131   -3.186    200.00     -0.00    200.00      0.00 
 7918  1.387   -7.820    200.00      0.00    200.00      0.00 
 7714  1.363   -7.494    200.00      0.00    200.00      0.00 
 8069  1.459   -9.045    200.00     -0.00    200.00      0.00 
 8138  1.480   -9.241    200.00      0.00    200.00      0.00 
 5964  1.306   -6.569    200.00     -0.00    200.00      0.00 
 6107  1.506   -9.634    200.00      0.00    200.00      0.00 
 7985  1.507   -9.651    200.00     -0.00    200.00      0.00 
 6339  1.137   -3.287    200.00     -0.00    200.00      0.00 
 7752  1.349   -7.210    200.00     -0.00    200.00      0.00 
 8131  1.504   -9.567    200.00      0.00    200.00      0.00 
 7921  1.380   -7.699    200.00     -0.00    200.00      0.00 
 8028  1.291   -6.269    200.00     -0.00    200.00      0.00 
 6086  1.393   -7.883    200.00      0.00    200.00      0.00 
 8137  1.382   -7.726    200.00      0.00    200.00      0.00 
 7818  1.293   -6.388    200.00      0.00    200.00      0.00 
 7850  1.143   -3.534    200.00      0.00    200.00      0.00 
 6342  1.363   -7.439    200.00     -0.00    200.00      0.00 
 8191  1.290   -6.299    200.00     -0.00    200.00      0.00 
 7783  1.517   -9.750    200.00      0.00    200.00      0.00 
 8070  1.553  -10.264    200.00      0.00    200.00      0.00 
 6327  1.233   -5.171    200.00      0.00    200.00      0.00 
 8196  1.509   -9.647    200.00      0.00    200.00      0.00 
  247  1.291   -6.316    200.00      0.00    200.00      0.00 
 6040  1.336   -7.075    200.00     -0.00    200.00      0.00 
 7691  1.458   -8.982    200.00      0.00    200.00      0.00 
 5856  1.583  -10.635    200.00     -0.00    200.00      0.00 
 8022  1.519   -9.814    200.00      0.00    200.00      0.00 
 7773  1.550  -10.229    200.00      0.00    200.00      0.00 
 7692  1.219   -5.062    200.00     -0.00    200.00      0.00 
 5742  1.473   -9.256    200.00      0.00    200.00      0.00 
 7970  1.379   -7.682    200.00      0.00    200.00      0.00 
 6282  1.339   -7.141    200.00      0.00    200.00      0.00 
 7994  1.533   -9.937    200.00      0.00    200.00      0.00 
 7790  1.530   -9.930    200.00      0.00    200.00      0.00 
 6142  1.213   -4.800    200.00      0.00    200.00      0.00 
 8182  1.593  -10.757    200.00     -0.00    200.00      0.00 
 5860  1.500   -9.526    200.00      0.00    200.00      0.00 
 8100  1.496   -9.430    200.00      0.00    200.00      0.00 
 6070  1.294   -6.364    200.00      0.00    200.00      0.00 
 5858  1.427   -8.619    200.00      0.00    200.00      0.00 
 7914  1.620  -11.091    200.00     -0.00    200.00      0.00 
 2824  1.510   -9.755    200.00     -0.00    200.00      0.00 
 6160  1.136   -3.269    200.00      0.00    200.00      0.00 
 6151  1.403   -8.271    200.00     -0.00    200.00      0.00 
 7988  1.415   -8.182    200.00      0.00    200.00      0.00 
 7905  1.564  -10.384    200.00     -0.00    200.00      0.00 
 7811  1.494   -9.493    200.00      0.00    200.00      0.00 
 7803  1.566  -10.422    200.00      0.00    200.00      0.00 
 8194  1.346   -7.251    200.00      0.00    200.00      0.00 
 7796  1.358   -7.378    200.00      0.00    200.00      0.00 
 7976  1.534  -10.006    200.00      0.00    200.00      0.00 
 8088  1.378   -7.684    200.00     -0.00    200.00      0.00 
 7831  1.547  -10.224    200.00      0.00    200.00      0.00 
 5999  1.152   -3.678    200.00      0.00    200.00      0.00 
 7942  1.376   -7.645    200.00      0.00    200.00      0.00 
 7827  1.433   -8.605    200.00      0.00    200.00      0.00 
 8098  1.379   -7.705    200.00      0.00    200.00      0.00 
 7672  1.625  -11.161    200.00      0.00    200.00      0.00 
 7678  1.377   -7.646    200.00     -0.00    200.00      0.00 
 6153  1.347   -7.427    200.00      0.00    200.00      0.00 
 7695  1.417   -8.259    200.00     -0.00    200.00      0.00 
 8058  1.348   -7.174    200.00     -0.00    200.00      0.00 
 5820  1.624  -11.144    200.00     -0.00    200.00      0.00 
 8169  1.363   -7.479    200.00     -0.00    200.00      0.00 
 6076  1.355   -7.317    200.00     -0.00    200.00      0.00 
 8146  1.403   -8.016    200.00      0.00    200.00      0.00 
 7967  1.371   -7.538    200.00      0.00    200.00      0.00 
 5927  1.409   -8.145    200.00      0.00    200.00      0.00 
 7847  1.000    0.000*   270.00   -516.79    200.00      0.00 
 8009  1.091   -2.297    200.00     -0.00    200.00      0.00 
 7865  1.349   -7.218    200.00     -0.00    200.00      0.00 
 4963  1.416   -8.200    200.00      0.00    200.00      0.00 
 7946  1.522   -9.782    200.00     -0.00    200.00      0.00 
 7864  1.292   -6.286    200.00      0.00    200.00      0.00 
 7682  1.566  -10.423    200.00      0.00    200.00      0.00 
 7889  1.378   -7.689    200.00     -0.00    200.00      0.00 
 5948  1.292   -6.286    200.00     -0.00    200.00      0.00 
 7719  1.555  -10.281    200.00     -0.00    200.00      0.00 
 5737  1.407   -8.068    200.00      0.00    200.00      0.00 
 7990  1.588  -10.704    200.00     -0.00    200.00      0.00 
 7829  1.090   -2.333    200.00     -0.00    200.00      0.00 
 7677  1.565  -10.456    200.00      0.00    200.00      0.00 
 7927  1.207   -4.634    200.00      0.00    200.00      0.00 
 7802  1.380   -7.717    200.00      0.00    200.00      0.00 
 7799  1.551  -10.241    200.00      0.00    200.00      0.00 
 8043  1.564  -10.384    200.00     -0.00    200.00      0.00 
 7879  1.000    0.000*   232.32   -234.67    200.00      0.00 
 7901  1.146   -3.577    200.00     -0.00    200.00      0.00 
 8102  1.404   -8.052    200.00      0.00    200.00      0.00 
 5740  1.624  -11.150    200.00     -0.00    200.00      0.00 
 8074  1.394   -7.907    200.00     -0.00    200.00      0.00 
 7888  1.492   -9.494    200.00      0.00    200.00      0.00 
 4011  1.395   -7.972    200.00      0.00    200.00      0.00 
 6027  1.581  -10.610    200.00      0.00    200.00      0.00 
 8187  1.143   -3.534    200.00      0.00    200.00      0.00 
 7784  1.557  -10.316    200.00      0.00    200.00      0.00 
 8181  1.354   -7.321    200.00     -0.00    200.00      0.00 
 7962  1.319   -6.737    200.00      0.00    200.00      0.00 
 7853  1.391   -7.850    200.00      0.00    200.00      0.00 
 8164  1.224   -5.299    200.00      0.00    200.00      0.00 
 7798  1.549  -10.212    200.00      0.00    200.00      0.00 
 7852  1.348   -7.213    200.00     -0.00    200.00      0.00 
 7741  1.269   -5.858    200.00     -0.00    200.00      0.00 
 7720  1.383   -7.820    200.00     -0.00    200.00      0.00 
 6082  1.455   -8.942    200.00     -0.00    200.00      0.00 
 8090  1.420   -8.311    200.00     -0.00    200.00      0.00 
 8172  1.559  -10.325    200.00     -0.00    200.00      0.00 
 7875  1.347   -7.279    200.00     -0.00    200.00      0.00 
 6183  1.533   -9.937    200.00      0.00    200.00      0.00 
 5762  1.265   -5.861    200.00      0.00    200.00      0.00 
 8199  1.453   -8.867    200.00     -0.00    200.00      0.00 
 7859  1.226   -5.155    200.00      0.00    200.00      0.00 
 8072  1.591  -10.757    200.00     -0.00    200.00      0.00 
 7766  1.000    0.000*   242.51   -316.00    200.00      0.00 
 7797  1.362   -7.462    200.00      0.00    200.00      0.00 
 8179  1.446   -8.889    200.00     -0.00    200.00      0.00 
 6147  1.503   -9.629    200.00     -0.00    200.00      0.00 
 7706  1.246   -5.666    200.00      0.00    200.00      0.00 
 3701  1.550  -10.229    200.00      0.00    200.00      0.00 
 3475  1.395   -7.972    200.00      0.00    200.00      0.00 
 6110  1.349   -7.218    200.00     -0.00    200.00      0.00 
 7996  1.604  -10.900    200.00     -0.00    200.00      0.00 
 5934  1.558  -10.301    200.00      0.00    200.00      0.00 
 8167  1.313   -6.688    200.00      0.00    200.00      0.00 
 5989  1.533   -9.981    200.00     -0.00    200.00      0.00 
 8004  1.587  -10.716    200.00      0.00    200.00      0.00 
 1978  1.000    0.000*   229.34   -223.14    200.00      0.00 
 8200  1.588  -10.718    200.00      0.00    200.00      0.00 
...
               Total:  74736.64  -2384.31  74400.00      0.00

================================================================================
|     Branch Data                                                              |
================================================================================
Brnch   From   To    From Bus Injection   To Bus Injection     Loss (I^2 * Z)  
  #     Bus    Bus    P (MW)   Q (MVAr)   P (MW)   Q (MVAr)   P (MW)   Q (MVAr)
-----  -----  -----  --------  --------  --------  --------  --------  --------
   0   8117   8125      2.09    -72.60     -1.52     69.03     0.571      1.71
   1   7751   8048     -4.04    186.21      7.97   -179.54     3.931     11.79
   2   7689   8147     -0.15     -2.93      0.15     -3.05     0.000      0.00
   3   7886   7831      0.65    100.17      0.21   -104.96     0.859      2.58
   4   8140   8137     -0.29     27.06      0.38    -32.56     0.092      0.28
   5   8146   8140      0.10     15.54     -0.07    -21.31     0.035      0.10
   6   7747   8058     -0.00     -0.00      0.00     -5.45     0.001      0.00
   7   7811   8154      0.20    -27.36     -0.15     20.77     0.052      0.15
   8   8022   8154     -0.17     35.07      0.30    -41.54     0.129      0.39
   9   7964   8125     -1.63     66.81      2.14    -70.80     0.514      1.54
  10   7766   8009     20.63   -158.18    -15.64    169.88     4.995     14.98
  11   7833   4854      0.00     -4.18      0.00      0.00     0.001      0.00
  12   8058   7747      0.00     -5.45     -0.00     -0.00     0.001      0.00
  13   6075   7923      0.55    -18.91     -0.53     13.38     0.028      0.08
  14   7749   7875      0.39     -8.73     -0.38      3.31     0.004      0.01
  15   6091   7993     -0.01      6.48      0.02    -12.89     0.009      0.03
  16   6147   6192     -0.59    -44.09      0.73     37.67     0.147      0.44
  17   7692   7818      9.72   -155.44     -6.54    160.23     3.174      9.52
  18   8006   7857      3.70    -80.99     -2.85     79.03     0.853      2.56
  19   7783   7718      0.25     13.97     -0.22    -20.77     0.026      0.08
  20   7782   7964     -1.95      4.83      1.96    -10.48     0.007      0.02
  21   7879   7904      0.00     -3.00      0.00      0.00     0.000      0.00
  22   5914   7761     -0.02     14.94      0.05    -22.38     0.028      0.08
  23   7989   7878     -7.14     75.89      8.13    -76.45     0.995      2.99
  24   7859   7657      2.47    -35.57     -2.32     31.45     0.149      0.45
  25   7876   8164     -8.46    200.28     13.23   -190.83     4.767     14.30
  26   6338   5736      0.00      0.00      0.00     -7.27     0.001      0.00
  27   6242   7677      0.04    -10.18     -0.03      2.85     0.003      0.01
  28   8140   7684      0.38    -28.88     -0.31     23.20     0.069      0.21
  29   7993   7876     -1.96    359.22     14.24   -328.19    12.280     36.84
  30   7845   7889     -0.90     39.37      1.09    -44.59     0.184      0.55
  31   6468   8093      0.36    -16.45     -0.33     10.93     0.020      0.06
  32   5740   8011      0.00     -7.92     -0.00      0.00     0.001      0.00
  33   7811   7664      2.15   -123.22     -0.86    120.16     1.287      3.86
  34   7818   7819      3.27    -80.12     -2.55     77.13     0.722      2.17
  35   7706   7882      2.60    -85.24     -1.72     83.09     0.886      2.66
  36   7903   7993      2.65    -28.88     -2.58     22.70     0.063      0.19
  37   7879   7878     16.16   -115.84    -13.49    120.63     2.667      8.00
  38   7833   8048     12.12   -171.59     -7.97    179.54     4.147     12.44
  39   7996   8067     -0.32     42.40      0.48    -49.54     0.166      0.50
  40   8027   5854      6.44    -69.19     -5.72     67.40     0.717      2.15
  41   8074   7751     -2.28    104.32      3.46   -106.40     1.185      3.55
  42   6082   8104     -0.20     22.82      0.27    -28.93     0.064      0.19
  43   6082   8104     -0.20     22.82      0.27    -28.93     0.064      0.19
  44   8102   8074     -0.47     20.52      0.52    -26.22     0.056      0.17
  45   8192   7964      0.93    -34.46     -0.82     29.19     0.109      0.33
  46   7737   7651     -3.39     99.90      4.55   -101.68     1.161      3.48
  47   7822   7911     -8.31    136.69     10.97   -132.86     2.655      7.97
  48   8189   7732     -0.00      7.56      0.01    -15.06     0.010      0.03
  49   7729   7732      0.04    -22.46     -0.01     15.06     0.028      0.08
  50   5955   7882     -0.72     31.99      0.86    -36.58     0.141      0.42
  51   7796   5964     -2.35    115.41      3.86   -116.19     1.516      4.55
  52   8085   7786     -6.52    108.43      8.14   -107.95     1.616      4.85
  53   7735   6108     -0.07      1.10      0.07     -6.54     0.002      0.00
  54   6108   7735      0.07     -6.54     -0.07      1.10     0.002      0.00
  55   7737   5817     -0.74      3.60      0.75     -9.02     0.004      0.01
  56   6330   6327     -1.78     36.18      1.97    -40.24     0.190      0.57
  57   5878   6160      0.01     -7.72     -0.00      3.87     0.005      0.02
  58   6145   6040      1.62    -28.36     -1.54     23.28     0.076      0.23
  59   6049   7672      0.00     -7.91      0.00      0.00     0.001      0.00
  60   6108   6282     -0.14     13.07      0.17    -18.39     0.028      0.08
  61   6039   6069      2.32    -46.32     -2.07     42.25     0.246      0.74
  62   7776   8137     -0.43     14.13      0.46    -19.80     0.030      0.09
  63   6142   6143     -1.32     28.60      1.45    -32.58     0.129      0.39
  64   6142   6394     -0.89     15.42      0.93    -19.67     0.042      0.13
  65   7790   7718     -0.83     47.15      1.05    -53.43     0.219      0.66
  66   5817   7737      0.75     -9.02     -0.74      3.60     0.004      0.01
  67   7716   7720      1.93    -50.82     -1.68     45.92     0.249      0.75
  68   6159   6145      1.73    -33.24     -1.62     28.36     0.110      0.33
  69   6076   7865     -0.30     12.15      0.33    -17.56     0.024      0.07
  70   8090   5726     -0.21     -4.69      0.21     -1.36     0.000      0.00
  71   8090   5743     -0.21     -4.69      0.21     -1.36     0.000      0.00
  72   5856   5905      0.88    -25.90     -0.84     18.46     0.039      0.12
  73   5739   5820     -0.10    -17.37      0.12      9.53     0.014      0.04
  74   5739   5740     -0.04    -18.54      0.06     10.70     0.016      0.05
  75   5989   6048     -0.41     -6.52      0.41     -0.54     0.001      0.00
  76   8090   5743     -0.21     -4.69      0.21     -1.36     0.000      0.00
  77   6125   5914     -0.03      1.61      0.03     -9.17     0.002      0.01
  78   5915   5917      0.01    -15.16     -0.00      7.61     0.010      0.03
  79   5914   5915     -0.00     -5.77      0.00     -1.78     0.000      0.00
  80   8191   5762     -2.45     52.55      2.81    -56.35     0.365      1.10
  81   8119   7976     -0.19     27.83      0.27    -34.70     0.083      0.25
  82   5737   5738     -0.00     -0.00      0.00     -5.93     0.001      0.00
  83   7771   8076     -0.00     -0.00      0.00     -5.78     0.001      0.00
  84   6071   5860     -0.01      6.80      0.01    -13.53     0.009      0.03
  85   5762   8191      2.81    -56.35     -2.45     52.55     0.365      1.10
  86   7749   8194      0.00     -5.43      0.00      0.00     0.001      0.00
  87   7882   5955      0.86    -36.58     -0.72     31.99     0.141      0.42
  88   7650   7786      0.00     -0.00      0.00     -4.19     0.001      0.00
  89   7678   8137      0.46    -14.77     -0.44      9.10     0.015      0.05
  90   7968    200      4.20    -73.80     -3.55     70.91     0.652      1.95
  91   8131   7836     -3.38     89.92      4.15    -94.24     0.770      2.31
  92   7953   6048     -0.00     -0.00      0.00     -7.07     0.001      0.00
  93   6110   6076      0.33    -17.56     -0.30     12.15     0.024      0.07
  94   6192   5989     -0.73    -37.67      0.84     30.98     0.101      0.30
  95   5964   7796      3.86   -116.19     -2.35    115.41     1.516      4.55
  96   5940   5941      0.02    -14.06     -0.00      9.43     0.018      0.05
  97   5743   5744     -0.42      2.72      0.42     -8.76     0.003      0.01
  98   6174   7886      0.03     43.33      0.15    -50.45     0.173      0.52
  99   7876   8164     -8.46    200.28     13.23   -190.83     4.767     14.30
 100   7706   8164     -1.30     42.62      1.56    -46.41     0.260      0.78
 101   8088   7942     -0.51      2.06      0.51     -7.75     0.003      0.01
 102   8179   5858     -0.69     43.37      0.90    -48.94     0.207      0.62
 103   8022   7976      0.40    -41.32     -0.27     34.70     0.124      0.37
 104   5742   8143      0.00     -6.51      0.00     -0.00     0.001      0.00
 105   5999   8083     -7.63     94.39      9.04    -93.98     1.408      4.23
 106   6147   7775      0.59     44.09     -0.39    -50.18     0.199      0.60
 107   7761   5915      0.05    -24.37     -0.02     16.94     0.034      0.10
 108   5728   8157      0.00     -6.13     -0.00      0.00     0.001      0.00
 109   8083   7847    -17.49    196.26     23.99   -180.10     6.495     19.48
 110   5940   5999     -9.98    200.33     15.27   -188.78     5.292     15.88
 111   6285   7720     -1.48     40.69      1.68    -45.92     0.194      0.58
 112   7776   5896      0.43    -14.13     -0.42      8.36     0.013      0.04
 113   6107   7924     -0.00     13.61      0.03    -20.31     0.026      0.08
 114   6142   6327      2.20    -44.02     -1.97     40.24     0.238      0.71
 115   8050   6141      0.01     -8.61     -0.01      1.04     0.002      0.01
 116   6143   7786     -1.45     32.58      1.61    -36.32     0.168      0.50
 117   6501   8102     -0.45     11.69      0.47    -17.56     0.022      0.07
 118   5896   6086     -0.28      0.72      0.28     -6.54     0.001      0.00
 119   6039   6019     -2.32     46.32      2.62    -50.06     0.301      0.90
 120   6107   7985      0.00     -6.81     -0.00     -0.00     0.001      0.00
 121   6040   5817      1.54    -23.28     -1.49     18.04     0.048      0.14
 122   6037   5860      0.11    -33.51     -0.03     27.07     0.082      0.25
 123   7678   5863     -1.79     94.67      2.80    -97.17     1.003      3.01
 124   6141   6125      0.02     -2.08     -0.02     -5.49     0.000      0.00
 125   5860   6071      0.01    -13.53     -0.01      6.80     0.009      0.03
 126   5863   7678      2.80    -97.17     -1.79     94.67     1.003      3.01
 127   5820   5740      0.06     -5.12     -0.06     -2.79     0.000      0.00
 128   5842   5878      0.00     -5.39     -0.00      1.55     0.002      0.01
 129   6160   6339      0.00     -3.87     -0.00     -0.00     0.001      0.00
 130   5855   5856      0.95    -33.16     -0.88     25.90     0.070      0.21
 131   6501   5744      0.89    -23.38     -0.85     17.51     0.042      0.13
 132   7973   7660     -0.18     17.21      0.21    -24.61     0.035      0.11
 133   6034   7749      0.77    -36.54     -0.64     31.56     0.130      0.39
 134   8199   6140     -0.45     17.81      0.49    -23.98     0.042      0.13
 135   7978   5941     -0.00     -0.00      0.00     -4.71     0.001      0.00
 136   5927   8099      0.00     -5.96     -0.00     -0.00     0.001      0.00
 137   5934   5855      1.06    -40.18     -0.95     33.16     0.110      0.33
 138   5941   7978      0.00     -4.71     -0.00     -0.00     0.001      0.00
 139   6342   6343     -0.30    -17.09      0.33     11.56     0.022      0.07
 140   7761   6027      0.00     -7.49      0.00      0.00     0.001      0.00
 141   6501   8102     -0.45     11.69      0.47    -17.56     0.022      0.07
 142   6242   6254     -0.06     20.78      0.10    -27.91     0.049      0.15
 143   6283   6285     -1.34     35.17      1.48    -40.69     0.145      0.44
 144   6091   5742      0.03    -19.44     -0.00     13.03     0.024      0.07
 145   7677   6241     -0.02     -4.09      0.02     -3.26     0.000      0.00
 146   7968   7854     -4.20     73.80      4.94    -76.16     0.740      2.22
 147   5858   7971      0.00     -6.11     -0.00     -0.00     0.001      0.00
 148   6037   6259     -0.11     33.51      0.23    -39.72     0.123      0.37
 149   5764   5765      0.02    -18.29     -0.00     12.26     0.023      0.07
 150   6070   6159      1.88    -37.88     -1.73     33.24     0.150      0.45
 151   8157   5728     -0.00      0.00      0.00     -6.13     0.001      0.00
 152   7761   6027      0.00     -7.49      0.00      0.00     0.001      0.00
 153   7958   7949      0.46    -14.28     -0.45      7.20     0.010      0.03
 154   2194   2195     -0.00      4.94      0.01     -9.85     0.007      0.02
 155   6330   6493      1.78    -36.18     -1.63     31.86     0.147      0.44
 156   8143   5742      0.00     -0.00      0.00     -6.51     0.001      0.00
 157   6034   5955     -0.99     60.12      1.43    -63.98     0.446      1.34
 158   6394   6390     -0.93     19.67      1.00    -23.79     0.066      0.20
 159   3285   7987     40.55   -288.74    -23.72    335.69    16.830     50.49
 160   6075   6076     -0.55     18.91      0.60    -24.31     0.051      0.15
 161   6071   6042      0.01    -13.60     -0.00      6.82     0.009      0.03
 162   6493   7653      0.81    -15.93     -0.79     11.15     0.023      0.07
 163    545    546     -0.00      4.94      0.01     -9.85     0.007      0.02
 164   7784   5736      0.00      0.00      0.00     -7.27     0.001      0.00
 165   7901   5962      8.82   -107.80     -7.10    108.82     1.719      5.16
 166   6282   6034     -0.17     18.39      0.22    -23.58     0.050      0.15
 167   6069   6070      2.07    -42.25     -1.88     37.88     0.195      0.59
 168   6049   5820      0.18     -3.50     -0.18     -4.40     0.000      0.00
 169   5896   5953      0.71     -9.07     -0.70      3.24     0.004      0.01
 170   5764   5728      0.02    -18.29     -0.00     12.26     0.023      0.07
 171   5863   5940     -5.60    194.35      9.96   -186.27     4.361     13.08
 172   5964   5962     -7.73    232.37     14.21   -217.65     6.481     19.44
 173   5726   5744     -0.42      2.72      0.42     -8.76     0.003      0.01
 174   7919   5765      0.00      0.00      0.00     -6.13     0.001      0.00
 175   7761   7660      0.02      1.39     -0.01     -8.87     0.002      0.01
 176   5927   8074     -1.20     34.32      1.34    -39.79     0.140      0.42
 177   6016   5980     -1.22    161.14      3.66   -160.22     2.434      7.30
 178   6241   6242     -0.02      3.26      0.02    -10.59     0.004      0.01
 179   6367   6468      0.40    -21.84     -0.36     16.45     0.040      0.12
 180   7792   7787      1.24    -41.63     -1.07     36.51     0.164      0.49
 181   6151   5858      1.23    -60.06     -0.90     55.05     0.332      1.00
 182   7954   6140      0.00      0.00      0.00     -6.26     0.001      0.00
 183   6342   8181      0.30     17.09     -0.26    -22.51     0.043      0.13
 184   7653   6493     -0.79     11.15      0.81    -15.93     0.023      0.07
 185   6390   7786     -1.00     23.79      1.09    -27.74     0.094      0.28
 186   5764   7684     -0.05     36.58      0.20    -42.12     0.155      0.47
 187    279   7684      0.00      0.00      0.00     -5.93     0.001      0.00
 188   3004   7684      0.00      0.00      0.00     -5.93     0.001      0.00
 189   6107   7699      0.00     -6.81     -0.00     -0.00     0.001      0.00
 190   7711   3645      0.05    -17.16     -0.02     12.98     0.032      0.10
 191   6183   7709     -0.00      0.00      0.00     -7.04     0.001      0.00
 192   6183   7709     -0.00      0.00      0.00     -7.04     0.001      0.00
 193   7723   6140      0.60    -36.12     -0.49     30.24     0.107      0.32
 194   6027   7761      0.00      0.00      0.00     -7.49     0.001      0.00
 195   7798   6016      0.66    146.50      1.22   -147.80     1.878      5.63
 196   7798   7799      0.00     -9.61     -0.00      2.41     0.003      0.01
 197   7798   7799      0.00     -9.61     -0.00      2.41     0.003      0.01
 198   7798   7799      0.00     -9.61     -0.00      2.41     0.003      0.01
...
                                                    Total:   336.640   1009.92
